Version 4.1
SHEET 1 1028 680
WIRE 496 -96 496 -128
WIRE 0 -32 0 -64
WIRE -528 0 -528 -48
WIRE -256 0 -256 -48
WIRE 496 16 496 -16
WIRE 0 64 0 48
WIRE -528 144 -528 64
WIRE 496 144 496 96
WIRE 496 144 288 144
WIRE 560 144 496 144
WIRE 752 144 624 144
WIRE 896 144 832 144
WIRE 0 160 0 144
WIRE 176 160 0 160
WIRE 224 160 176 160
WIRE 352 176 288 176
WIRE 0 208 0 160
WIRE 352 256 352 176
WIRE 496 256 352 256
WIRE 0 304 0 288
WIRE 352 304 352 256
WIRE 496 320 496 256
WIRE 0 416 0 384
WIRE 352 416 352 384
WIRE 496 416 496 384
FLAG -256 -128 0
FLAG 0 416 0
FLAG 352 416 0
FLAG -256 0 VCC
FLAG 0 -64 VCC
FLAG 496 -128 VCC
FLAG 496 416 0
FLAG 896 144 0
FLAG -528 -128 0
FLAG -528 144 Vin
FLAG 176 160 Vin
SYMBOL res 480 -112 R0
SYMATTR InstName RC
SYMATTR Value 1050
SYMBOL res 336 288 R0
SYMATTR InstName RE
SYMATTR Value 180
SYMBOL res -16 288 R0
SYMATTR InstName R2
SYMATTR Value 3.7k
SYMBOL res -16 -48 R0
SYMATTR InstName R1
SYMATTR Value 16k
SYMBOL voltage -256 -32 R180
WINDOW 0 24 96 Left 2
WINDOW 3 24 16 Left 2
WINDOW 123 0 0 Left 0
WINDOW 39 0 0 Left 0
SYMATTR InstName V1
SYMATTR Value 10
SYMBOL transistor 256 160 R0
SYMATTR InstName BFP420_PE
SYMBOL cap 480 320 R0
SYMATTR InstName C1
SYMATTR Value 1”
SYMBOL ind -16 192 R0
SYMATTR InstName L1
SYMATTR Value 100m
SYMBOL ind -16 48 R0
SYMATTR InstName L2
SYMATTR Value 100m
SYMBOL ind 480 0 R0
SYMATTR InstName L3
SYMATTR Value 100m
SYMBOL res 848 128 R90
WINDOW 0 0 56 VBottom 2
WINDOW 3 32 56 VTop 2
SYMATTR InstName RL
SYMATTR Value 50
SYMBOL cap 624 128 R90
WINDOW 0 0 32 VBottom 2
WINDOW 3 32 32 VTop 2
SYMATTR InstName C2
SYMATTR Value 1”
SYMBOL voltage -528 -32 R180
WINDOW 0 24 96 Left 2
WINDOW 3 24 16 Left 2
WINDOW 123 24 68 Left 2
WINDOW 39 24 40 Left 2
SYMATTR InstName V2
SYMATTR Value ""
SYMATTR Value2 AC 1
SYMATTR SpiceLine Rser=50
SYMBOL cap -544 0 R0
SYMATTR InstName C3
SYMATTR Value 1”
TEXT -648 440 Left 2 !.ac dec 401 1G 10G
TEXT -648 472 Left 2 !.net I(RL) V2
