Version 4.1
SHEET 1 1396 724
WIRE 496 -96 496 -128
WIRE -784 -64 -784 -112
WIRE -112 -48 -112 -80
WIRE -256 0 -256 -48
WIRE 496 16 496 -16
WIRE -112 48 -112 32
WIRE -784 80 -784 0
WIRE 496 144 496 96
WIRE 496 144 288 144
WIRE 576 144 496 144
WIRE 704 144 640 144
WIRE 864 144 800 144
WIRE 944 144 864 144
WIRE 1072 144 1024 144
WIRE -496 160 -608 160
WIRE -352 160 -496 160
WIRE -112 160 -112 128
WIRE -112 160 -256 160
WIRE 224 160 -112 160
WIRE 240 160 224 160
WIRE 864 160 864 144
WIRE 928 160 864 160
WIRE 352 176 288 176
WIRE 704 176 656 176
WIRE 864 176 800 176
WIRE -352 192 -384 192
WIRE -208 192 -256 192
WIRE -112 192 -112 160
WIRE 656 240 656 176
WIRE 864 240 864 176
WIRE -384 256 -384 192
WIRE -208 256 -208 192
WIRE 352 256 352 176
WIRE 496 256 352 256
WIRE -112 288 -112 272
WIRE 928 288 928 160
WIRE 928 288 752 288
WIRE 352 304 352 256
WIRE -496 320 -496 160
WIRE -304 320 -320 320
WIRE 496 320 496 256
WIRE 752 336 752 288
WIRE 816 336 752 336
WIRE 1008 336 992 336
WIRE -496 352 -544 352
WIRE -352 352 -400 352
WIRE -304 368 -304 320
WIRE 816 368 752 368
WIRE 960 368 912 368
WIRE 1008 384 1008 336
WIRE -112 400 -112 368
WIRE -544 416 -544 352
WIRE -352 416 -352 352
WIRE 352 416 352 384
WIRE 496 416 496 384
WIRE 752 432 752 368
WIRE 960 432 960 368
FLAG -256 -128 0
FLAG -112 400 0
FLAG 352 416 0
FLAG -256 0 VCC
FLAG -112 -80 VCC
FLAG 496 -128 VCC
FLAG 496 416 0
FLAG -784 -192 0
FLAG -784 80 Vin
FLAG -608 160 Vin
FLAG 1072 144 0
FLAG -544 416 0
FLAG -304 368 0
FLAG -384 256 0
FLAG -208 256 0
FLAG 656 240 0
FLAG 864 240 0
FLAG 752 432 0
FLAG 1008 384 0
SYMBOL res 480 -112 R0
SYMATTR InstName RC
SYMATTR Value 1050
SYMBOL res 336 288 R0
SYMATTR InstName RE
SYMATTR Value 155
SYMBOL res -128 272 R0
SYMATTR InstName R2
SYMATTR Value 1.85k
SYMBOL res -128 -64 R0
SYMATTR InstName R1
SYMATTR Value 9k
SYMBOL voltage -256 -32 R180
WINDOW 0 24 96 Left 2
WINDOW 3 24 16 Left 2
WINDOW 123 0 0 Left 0
WINDOW 39 0 0 Left 0
SYMATTR InstName V1
SYMATTR Value 10
SYMBOL transistor 256 160 R0
SYMATTR InstName BFP420_PE
SYMBOL cap 480 320 R0
SYMATTR InstName C1
SYMATTR Value 1ｵ
SYMBOL ind -128 176 R0
SYMATTR InstName L1
SYMATTR Value 100m
SYMBOL ind -128 32 R0
SYMATTR InstName L2
SYMATTR Value 100m
SYMBOL ind 480 0 R0
SYMATTR InstName L3
SYMATTR Value 100m
SYMBOL res 1040 128 R90
WINDOW 0 0 56 VBottom 2
WINDOW 3 32 56 VTop 2
SYMATTR InstName RL
SYMATTR Value 50
SYMBOL cap 640 128 R90
WINDOW 0 0 32 VBottom 2
WINDOW 3 32 32 VTop 2
SYMATTR InstName C2
SYMATTR Value 1ｵ
SYMBOL voltage -784 -96 R180
WINDOW 0 24 96 Left 2
WINDOW 3 24 16 Left 2
WINDOW 123 24 68 Left 2
WINDOW 39 24 40 Left 2
SYMATTR InstName V2
SYMATTR Value ""
SYMATTR Value2 AC 1
SYMATTR SpiceLine Rser=50
SYMBOL cap -800 -64 R0
SYMATTR InstName C3
SYMATTR Value 1ｵ
SYMBOL tline -304 176 R0
SYMATTR InstName T1
SYMATTR Value Td=17.17p Z0=50
SYMBOL tline 752 160 R0
SYMATTR InstName T2
SYMATTR Value Td=28.17p Z0=50
SYMBOL tline -448 336 R0
SYMATTR InstName T3
SYMATTR Value Td=51.33p Z0=50
SYMBOL tline 864 352 R0
SYMATTR InstName T4
SYMATTR Value Td=28.17p Z0=50
SYMBOL res -304 304 R90
WINDOW 0 0 56 VBottom 2
WINDOW 3 32 56 VTop 2
SYMATTR InstName R3
SYMATTR Value 100Meg
SYMBOL res 1008 320 R90
WINDOW 0 0 56 VBottom 2
WINDOW 3 32 56 VTop 2
SYMATTR InstName R4
SYMATTR Value 100Meg
TEXT -1000 248 Left 2 !.ac dec 401 1G 10G
TEXT -1000 280 Left 2 !.net I(RL) V2
TEXT -1000 192 Left 2 ;.tran 0 1 0 0.1
