Version 4.1
SHEET 1 880 680
WIRE -240 -336 -336 -336
WIRE -336 -272 -336 -336
WIRE -336 -128 -336 -192
FLAG -336 -128 0
FLAG -240 -336 VDD
SYMBOL voltage -336 -288 R0
WINDOW 123 0 0 Left 0
WINDOW 39 0 0 Left 0
SYMATTR InstName V1
SYMATTR Value 2.5
SYMBOL nmos4 -48 -64 R0
SYMATTR InstName M1
SYMATTR Value NMOS-BSIM NMOS
